/*--------------------------------*- C++ -*----------------------------------*\
| =========                 |                                                 |
| \\      /  F ield         | OpenFOAM: The Open Source CFD Toolbox           |
|  \\    /   O peration     | Version:  1.6                                   |
|   \\  /    A nd           | Web:      http://www.OpenFOAM.org               |
|    \\/     M anipulation  |                                                 |
\*---------------------------------------------------------------------------*/
FoamFile
{
    version     2.0;
    format      ascii;
    class       volVectorField;
    object      U;
}
// * * * * * * * * * * * * * * * * * * * * * * * * * * * * * * * * * * * * * //

dimensions      [0 1 -1 0 0 0 0];

internalField   uniform (210 0 0);

boundaryField
{
    #includeEtc "caseDicts/setConstraintTypes"
    
    "w_.*"
    {
        type            noSlip;
    }
    
    inlet
    {
        type            fixedValue;
        value		$internalField;
    }
    outlet
    {
        type            zeroGradient;
    }

}

// ************************************************************************* //
