/*--------------------------------*- C++ -*----------------------------------*\
| =========                 |                                                 |
| \\      /  F ield         | OpenFOAM: The Open Source CFD Toolbox           |
|  \\    /   O peration     | Version:  2.1.0                                 |
|   \\  /    A nd           | Web:      www.OpenFOAM.org                      |
|    \\/     M anipulation  |                                                 |
\*---------------------------------------------------------------------------*/
FoamFile
{
    version     2.0;
    format      ascii;
    class       dictionary;
    location    "system";
    object      fvSolution;
}
// * * * * * * * * * * * * * * * * * * * * * * * * * * * * * * * * * * * * * //

solvers
{
  rho 
    {
      solver diag;
    }

  rhoU 
    {
      solver diag;
    }

  rhoE 
    {
      solver diag;
    }
    
    "(k|omega|epsilon|nuTilda)"
    {
        solver          smoothSolver;
        smoother        symGaussSeidel;
        tolerance       1e-8;
        relTol          0.1;
        minIter         1;
        maxIter         20;
    };
  
}

PIMPLE
{
    momentumPredictor   no;

    nOuterCorrectors    1;
    nCorrectors         2;
    nNonOrthogonalCorrectors 0;

    maxCo               10;
    maxAlphaCo          5;

    rDeltaTSmoothingCoeff 0.05;
    rDeltaTDampingCoeff 0.5;
    nAlphaSpreadIter    0;
    nAlphaSweepIter     0;
    maxDeltaT           1;
}

LUSGS {
  internalIterations 1;
  localTimestepping true;
}

fieldBounds
{
    rho 0.01 10;
    p   100 1e6;
    T   10 800;
}

relaxationFactors
{
    equations
    {
        k               0.05;
        epsilon         0.05;
    }
}


// ************************************************************************* //
