/*--------------------------------*- C++ -*----------------------------------*\
| =========                 |                                                 |
| \\      /  F ield         | OpenFOAM: The Open Source CFD Toolbox           |
|  \\    /   O peration     | Version:  v1912                                 |
|   \\  /    A nd           | Website:  www.openfoam.com                      |
|    \\/     M anipulation  |                                                 |
\*---------------------------------------------------------------------------*/
FoamFile
{
    version     2.0;
    format      ascii;
    class       polyBoundaryMesh;
    location    "constant/polyMesh";
    object      boundary;
}
// * * * * * * * * * * * * * * * * * * * * * * * * * * * * * * * * * * * * * //

7
(
    lowerWall
    {
        type            wall;
        inGroups        1(wall);
        nFaces          283;
        startFace       66089;
    }
    lowerSymmetry
    {
        type            patch;
        nFaces          35;
        startFace       66372;
    }
    upperSymmetry
    {
        type            patch;
        nFaces          315;
        startFace       66407;
    }
    inlet
    {
        type            patch;
        nFaces          105;
        startFace       66722;
    }
    outlet
    {
        type            patch;
        nFaces          0;
        startFace       66827;
    }
    defaultFaces
    {
        type            empty;
        inGroups        1(empty);
        nFaces          66512;
        startFace       66827;
    }
    procBoundary0to1
    {
        type            processor;
        inGroups        1(processor);
        nFaces          108;
        startFace       133339;
        matchTolerance  0.0001;
        transform       unknown;
        myProcNo        0;
        neighbProcNo    1;
    }
)

// ************************************************************************* //
